Circuit: * G:\Documentos\Semestre I 2016\Control\Componentes\IDAC(SAR-POT).asc


Date: Sun Apr 17 11:25:46 2016
Total elapsed time: 0.121 seconds.

tnom = 27
temp = 27
method = trap
totiter = 520
traniter = 0
tranpoints = 0
accept = 0
rejected = 0
matrix size = 14
fillins = 6
solver = Normal
Matrix Compiler1: 1,38 KB object code size  2.3/1.9/[1.8]
Matrix Compiler2: off  [1.9]/2.0/2.5


