Circuit: * G:\Documentos\Semestre I 2016\Control\Componentes\op_amp_test_circuit.asc

Direct Newton iteration for .op point succeeded.

Date: Wed Apr 13 13:05:48 2016
Total elapsed time: 0.142 seconds.

tnom = 27
temp = 27
method = trap
totiter = 13
traniter = 0
tranpoints = 0
accept = 0
rejected = 0
matrix size = 36
fillins = 49
solver = Normal
Matrix Compiler1:     229 opcodes
Matrix Compiler2: 3,75 KB object code size

